A71EV2A-x0556_A_147_A71EV2A-x0501+A+152+1
     RDKit          3D

 14 15  0  0  0  0  0  0  0  0999 V2000
   35.1570   10.9370    5.0250 O   0  0  0  0  0  0  0  0  0  0  0  0
   34.4080   10.0140    5.1660 C   0  0  0  0  0  0  0  0  0  0  0  0
   33.2890   10.1180    6.0900 C   0  0  0  0  0  0  0  0  0  0  0  0
   32.8790   11.2780    6.4940 C   0  0  0  0  0  0  0  0  0  0  0  0
   33.4320   12.3900    5.9990 N   0  0  0  0  0  0  0  0  0  0  0  0
   31.8580   11.0530    7.3570 C   0  0  0  0  0  0  0  0  0  0  0  0
   32.5950    9.0950    6.6080 N   0  0  0  0  0  0  0  0  0  0  0  0
   31.7130    9.7260    7.4000 N   0  0  0  0  0  0  0  0  0  0  0  0
   30.7140    8.9560    8.1230 C   0  0  0  0  0  0  0  0  0  0  0  0
   34.4720    8.9000    4.4380 N   0  0  0  0  0  0  0  0  0  0  0  0
   35.6770    8.5650    3.6850 C   0  0  0  0  0  0  0  0  0  0  0  0
   36.9180    8.0770    4.4980 C   0  0  0  0  0  0  0  0  0  0  0  0
   37.1900    7.3100    3.2140 C   0  0  0  0  0  0  0  0  0  0  0  0
   35.6960    7.3210    2.9780 C   0  0  0  0  0  0  0  0  0  0  0  0
  9  8  1  0
  8  6  1  0
  6  4  2  0
  5  4  1  0
  4  3  1  0
  7  3  2  0
  8  7  1  0
  3  2  1  0
  2  1  2  0
 10  2  1  0
 11 10  1  0
 11 14  1  0
 14 13  1  0
 13 12  1  0
 12 11  1  0
M  END

$$$$
