A71EV2A-x0341_A_147_A71EV2A-x0395+A+148+1
     RDKit          3D

 13 14  0  0  0  0  0  0  0  0999 V2000
   17.5870   -3.9460   20.7030 O   0  0  0  0  0  0  0  0  0  0  0  0
   18.3560   -3.4170   19.8540 C   0  0  0  0  0  0  0  0  0  0  0  0
   19.6050   -2.6400   20.0550 C   0  0  0  0  0  0  0  0  0  0  0  0
   20.0000   -2.3160   18.6630 C   0  0  0  0  0  0  0  0  0  0  0  0
   21.2240   -1.5280   18.3220 C   0  0  0  0  0  0  0  0  0  0  0  0
   18.1220   -3.4890   18.4500 N   0  0  0  0  0  0  0  0  0  0  0  0
   19.1570   -2.8010   17.8080 N   0  0  0  0  0  0  0  0  0  0  0  0
   17.0230   -4.1480   17.8330 C   0  0  0  0  0  0  0  0  0  0  0  0
   16.0040   -3.4170   17.2340 C   0  0  0  0  0  0  0  0  0  0  0  0
   14.9180   -4.0100   16.6290 C   0  0  0  0  0  0  0  0  0  0  0  0
   14.8290   -5.3880   16.6120 C   0  0  0  0  0  0  0  0  0  0  0  0
   15.8360   -6.1240   17.2070 C   0  0  0  0  0  0  0  0  0  0  0  0
   16.9280   -5.5200   17.8150 C   0  0  0  0  0  0  0  0  0  0  0  0
  5  4  1  0
  4  7  2  0
  7  6  1  0
  6  2  1  0
  2  1  2  0
  3  2  1  0
  4  3  1  0
  8  6  1  0
  8 13  2  0
 13 12  1  0
 12 11  2  0
 11 10  1  0
 10  9  2  0
  9  8  1  0
M  END
