A71EV2A-x0554_A_201_A71EV2A-x0501+A+152+1
     RDKit          3D

 13 14  0  0  0  0  0  0  0  0999 V2000
   29.8270   13.1800    6.4750 O   0  0  0  0  0  0  0  0  0  0  0  0
   29.7210   13.0800    7.6850 C   0  0  0  0  0  0  0  0  0  0  0  0
   28.9400   14.0730    8.5010 C   0  0  0  0  0  0  0  0  0  0  0  0
   30.2620   12.0510    8.3860 N   0  0  0  0  0  0  0  0  0  0  0  0
   31.0640   10.9920    7.9200 C   0  0  0  0  0  0  0  0  0  0  0  0
   32.0920   11.1420    6.9750 C   0  0  0  0  0  0  0  0  0  0  0  0
   32.5400   12.2570    6.3120 N   0  0  0  0  0  0  0  0  0  0  0  0
   33.6080   11.9000    5.5250 C   0  0  0  0  0  0  0  0  0  0  0  0
   33.8590   10.5740    5.6540 C   0  0  0  0  0  0  0  0  0  0  0  0
   32.9070   10.0560    6.5860 C   0  0  0  0  0  0  0  0  0  0  0  0
   32.6810    8.8110    7.1710 C   0  0  0  0  0  0  0  0  0  0  0  0
   31.6490    8.6520    8.0770 C   0  0  0  0  0  0  0  0  0  0  0  0
   30.8610    9.7210    8.4510 C   0  0  0  0  0  0  0  0  0  0  0  0
  3  2  1  0
  2  1  2  0
  4  2  1  0
  5  4  1  0
  5 13  2  0
 13 12  1  0
 12 11  2  0
 11 10  1  0
 10  9  1  0
  9  8  2  0
  8  7  1  0
  7  6  1  0
  6  5  1  0
 10  6  2  0
M  END
