A71EV2A-x0719_A_201_A71EV2A-x0528+A+201+1
     RDKit          3D

 13 13  0  0  0  0  0  0  0  0999 V2000
   31.3460   22.5320   17.4460 O   0  0  0  0  0  0  0  0  0  0  0  0
   31.2930   23.6950   18.2790 S   0  0  0  0  0  0  0  0  0  0  0  0
   31.7210   24.9580   17.7680 O   0  0  0  0  0  0  0  0  0  0  0  0
   32.1340   23.3840   19.6130 N   0  0  0  0  0  0  0  0  0  0  0  0
   29.6340   23.8800   18.9170 C   0  0  0  0  0  0  0  0  0  0  0  0
   28.6130   22.7820   18.5680 C   0  0  1  0  0  0  0  0  0  0  0  0
   29.3370   21.4800   18.2910 C   0  0  0  0  0  0  0  0  0  0  0  0
   27.4830   22.5830   19.5740 C   0  0  0  0  0  0  0  0  0  0  0  0
   27.1320   23.5810   20.4710 C   0  0  0  0  0  0  0  0  0  0  0  0
   26.0300   23.4360   21.2990 C   0  0  0  0  0  0  0  0  0  0  0  0
   25.2850   22.2850   21.2690 C   0  0  0  0  0  0  0  0  0  0  0  0
   25.6350   21.2730   20.4090 C   0  0  0  0  0  0  0  0  0  0  0  0
   26.7240   21.4190   19.5670 C   0  0  0  0  0  0  0  0  0  0  0  0
  6  7  1  1
  6  5  1  0
  5  2  1  0
  3  2  2  0
  2  1  2  0
  4  2  1  0
  8  6  1  0
  8 13  2  0
 13 12  1  0
 12 11  2  0
 11 10  1  0
 10  9  2  0
  9  8  1  0
M  END

$$$$
