A71EV2A-x0412_A_147_A71EV2A-x0412+A+147+1
     RDKit          3D

 15 16  0  0  0  0  0  0  0  0999 V2000
   17.4790   -9.9540   12.6300 O   0  0  0  0  0  0  0  0  0  0  0  0
   18.4900   -9.2830   12.4370 C   0  0  0  0  0  0  0  0  0  0  0  0
   19.0530   -8.3650   13.4800 C   0  0  0  0  0  0  0  0  0  0  0  0
   19.1640   -9.3330   11.2530 N   0  0  0  0  0  0  0  0  0  0  0  0
   18.7370  -10.1370   10.2110 C   0  0  0  0  0  0  0  0  0  0  0  0
   17.8690  -11.1220   10.3000 N   0  0  0  0  0  0  0  0  0  0  0  0
   17.8410  -11.6820    9.0180 C   0  0  0  0  0  0  0  0  0  0  0  0
   18.7120  -10.9990    8.1740 C   0  0  0  0  0  0  0  0  0  0  0  0
   19.2660   -9.9910    8.9550 N   0  0  0  0  0  0  0  0  0  0  0  0
   20.1680   -8.9230    8.5030 C   0  0  0  0  0  0  0  0  0  0  0  0
   19.6400   -7.5510    8.8570 C   0  0  0  0  0  0  0  0  0  0  0  0
   18.9040  -11.3720    6.8480 C   0  0  0  0  0  0  0  0  0  0  0  0
   18.1960  -12.4710    6.3820 C   0  0  0  0  0  0  0  0  0  0  0  0
   17.3230  -13.1690    7.2160 C   0  0  0  0  0  0  0  0  0  0  0  0
   17.1210  -12.7740    8.5340 C   0  0  0  0  0  0  0  0  0  0  0  0
 11 10  1  0
 10  9  1  0
  9  5  1  0
  5  4  1  0
  4  2  1  0
  2  1  2  0
  3  2  1  0
  6  5  2  0
  7  6  1  0
  7 15  2  0
 15 14  1  0
 14 13  2  0
 13 12  1  0
 12  8  2  0
  9  8  1  0
  8  7  1  0
M  END

$$$$
