A71EV2A-x0812_A_147_A71EV2A-x0528+A+147+1
     RDKit          3D

 13 14  0  0  0  0  0  0  0  0999 V2000
    9.6510   16.1270   21.9610 O   0  0  0  0  0  0  0  0  0  0  0  0
   10.3160   15.0990   21.7670 C   0  0  0  0  0  0  0  0  0  0  0  0
   11.5150   15.1100   21.1950 N   0  0  0  0  0  0  0  0  0  0  0  0
    9.7900   13.7760   22.1770 C   0  0  0  0  0  0  0  0  0  0  0  0
   10.3100   12.6410   21.7090 N   0  0  0  0  0  0  0  0  0  0  0  0
    8.6990   13.5090   23.0740 C   0  0  0  0  0  0  0  0  0  0  0  0
    8.6000   12.1140   23.1020 C   0  0  0  0  0  0  0  0  0  0  0  0
    9.5730   11.6310   22.2800 N   0  0  0  0  0  0  0  0  0  0  0  0
    9.8840   10.2430   21.9780 C   0  0  0  0  0  0  0  0  0  0  0  0
    7.6530   11.4650   23.8840 C   0  0  0  0  0  0  0  0  0  0  0  0
    6.7950   12.2370   24.6560 C   0  0  0  0  0  0  0  0  0  0  0  0
    6.8760   13.6210   24.6360 C   0  0  0  0  0  0  0  0  0  0  0  0
    7.8240   14.2650   23.8510 C   0  0  0  0  0  0  0  0  0  0  0  0
  9  8  1  0
  8  5  1  0
  5  4  2  0
  4  2  1  0
  2  1  2  0
  3  2  1  0
  6  4  1  0
  6 13  2  0
 13 12  1  0
 12 11  2  0
 11 10  1  0
 10  7  2  0
  8  7  1  0
  7  6  1  0
M  END
