A71EV2A-x1105_A_147_A71EV2A-x0395+A+148+1
     RDKit          3D

 12 13  0  0  0  0  0  0  0  0999 V2000
    9.1300   -9.2490    9.6900 C   0  0  0  0  0  0  0  0  0  0  0  0
    8.2030   -8.9500    8.7080 C   0  0  0  0  0  0  0  0  0  0  0  0
    7.7550   -7.7120    8.4600 N   0  0  0  0  0  0  0  0  0  0  0  0
    8.1850   -6.7510    9.2780 C   0  0  0  0  0  0  0  0  0  0  0  0
    9.0780   -6.9630   10.3130 C   0  0  0  0  0  0  0  0  0  0  0  0
    9.6230   -8.2280   10.5020 C   0  0  0  0  0  0  0  0  0  0  0  0
   10.8290   -8.4300   11.3680 C   0  0  0  0  0  0  0  0  0  0  0  0
   11.2730   -7.4300   12.2380 C   0  0  0  0  0  0  0  0  0  0  0  0
   12.4520   -7.5820   12.9530 C   0  0  0  0  0  0  0  0  0  0  0  0
   11.6090   -9.5810   11.2600 C   0  0  0  0  0  0  0  0  0  0  0  0
   12.7880   -9.7170   11.9770 C   0  0  0  0  0  0  0  0  0  0  0  0
   13.2030   -8.7280   12.8240 C   0  0  0  0  0  0  0  0  0  0  0  0
 12  9  1  0
  9  8  2  0
  8  7  1  0
 10  7  2  0
 11 10  1  0
 12 11  2  0
  7  6  1  0
  6  5  2  0
  5  4  1  0
  4  3  2  0
  3  2  1  0
  2  1  2  0
  6  1  1  0
M  END
