A71EV2A-x0608_A_147_A71EV2A-x0486+A+147+1
     RDKit          3D

 17 18  0  0  0  0  0  0  0  0999 V2000
   21.5310   11.7730    2.4310 O   0  0  0  0  0  0  0  0  0  0  0  0
   21.0490   12.8460    2.1150 C   0  0  0  0  0  0  0  0  0  0  0  0
   19.6670   13.2330    2.5890 C   0  0  0  0  0  0  0  0  0  0  0  0
   18.3230   13.1060    1.9100 C   0  0  0  0  0  0  0  0  0  0  0  0
   17.3220   13.9860    2.2270 C   0  0  0  0  0  0  0  0  0  0  0  0
   16.0590   13.8460    1.7120 C   0  0  0  0  0  0  0  0  0  0  0  0
   18.0180   12.0590    1.0640 C   0  0  0  0  0  0  0  0  0  0  0  0
   16.7550   11.9250    0.5260 C   0  0  0  0  0  0  0  0  0  0  0  0
   15.7410   12.8070    0.8580 C   0  0  0  0  0  0  0  0  0  0  0  0
   14.3120   12.5800    0.4110 C   0  0  0  0  0  0  0  0  0  0  0  0
   21.7070   13.7780    1.4270 N   0  0  0  0  0  0  0  0  0  0  0  0
   23.1110   14.1690    1.6440 C   0  0  0  0  0  0  0  0  0  0  0  0
   23.2030   15.6230    2.0340 C   0  0  1  0  0  0  0  0  0  0  0  0
   24.3290   16.2760    1.4310 O   0  0  0  0  0  0  0  0  0  0  0  0
   23.9440   17.5370    0.9250 C   0  0  0  0  0  0  0  0  0  0  0  0
   22.5210   17.7810    1.4030 C   0  0  0  0  0  0  0  0  0  0  0  0
   22.0290   16.4140    1.6410 C   0  0  0  0  0  0  0  0  0  0  0  0
 10  9  1  0
  9  6  1  0
  6  5  2  0
  5  4  1  0
  4  3  1  0
  3  2  1  0
  2  1  2  0
 11  2  1  0
 12 11  1  0
 13 12  1  6
 13 17  1  0
 17 16  1  0
 16 15  1  0
 15 14  1  0
 14 13  1  0
  7  4  2  0
  8  7  1  0
  9  8  2  0
M  END
