A71EV2A-x0332_A_147_A71EV2A-x0541+A+147+1
     RDKit          3D

 12 12  0  0  0  0  0  0  0  0999 V2000
    7.5730   11.2840    3.0870 Cl  0  0  0  0  0  0  0  0  0  0  0  0
    8.1060   12.9280    2.7950 C   0  0  0  0  0  0  0  0  0  0  0  0
    8.9320   13.1700    1.7180 C   0  0  0  0  0  0  0  0  0  0  0  0
    9.4250   14.4360    1.5100 C   0  0  0  0  0  0  0  0  0  0  0  0
    9.0870   15.4580    2.3530 C   0  0  0  0  0  0  0  0  0  0  0  0
    8.2620   15.2340    3.4230 C   0  0  0  0  0  0  0  0  0  0  0  0
    7.7700   13.9660    3.6560 C   0  0  0  0  0  0  0  0  0  0  0  0
    6.7750   13.7410    5.0680 S   0  0  0  0  0  0  0  0  0  0  0  0
    5.4610   14.0510    4.6020 O   0  0  0  0  0  0  0  0  0  0  0  0
    7.0620   12.4220    5.5180 O   0  0  0  0  0  0  0  0  0  0  0  0
    7.1220   14.8110    6.1680 N   0  0  0  0  0  0  0  0  0  0  0  0
    6.1670   15.1030    7.2290 C   0  0  0  0  0  0  0  0  0  0  0  0
 12 11  1  0
 11  8  1  0
  9  8  2  0
 10  8  2  0
  8  7  1  0
  7  6  2  0
  6  5  1  0
  5  4  2  0
  4  3  1  0
  3  2  2  0
  7  2  1  0
  2  1  1  0
M  END
