A71EV2A-x1109_A_147_A71EV2A-x0395+A+148+1
     RDKit          3D

 14 15  0  0  0  0  0  0  0  0999 V2000
    9.6510   -7.1760   11.9360 O   0  0  0  0  0  0  0  0  0  0  0  0
    9.0960   -8.2480   11.8000 C   0  0  0  0  0  0  0  0  0  0  0  0
    9.6570   -9.2820   11.2410 O   0  0  0  0  0  0  0  0  0  0  0  0
    7.7280   -8.4580   12.2890 C   0  0  0  0  0  0  0  0  0  0  0  0
    6.9070   -7.1690   13.0960 S   0  0  0  0  0  0  0  0  0  0  0  0
    5.5290   -8.1960   13.3230 C   0  0  0  0  0  0  0  0  0  0  0  0
    5.6770   -9.3970   12.8290 N   0  0  0  0  0  0  0  0  0  0  0  0
    6.9120   -9.5350   12.2520 C   0  0  0  0  0  0  0  0  0  0  0  0
    4.3100   -7.7330   14.0050 C   0  0  0  0  0  0  0  0  0  0  0  0
    3.9320   -6.3910   13.9610 C   0  0  0  0  0  0  0  0  0  0  0  0
    2.7740   -5.9650   14.5930 C   0  0  0  0  0  0  0  0  0  0  0  0
    1.9900   -6.8630   15.2870 C   0  0  0  0  0  0  0  0  0  0  0  0
    2.3570   -8.1940   15.3450 C   0  0  0  0  0  0  0  0  0  0  0  0
    3.5080   -8.6320   14.7070 C   0  0  0  0  0  0  0  0  0  0  0  0
  3  2  1  0
  2  1  2  0
  4  2  1  0
  4  8  2  0
  8  7  1  0
  7  6  2  0
  6  5  1  0
  5  4  1  0
  9  6  1  0
  9 14  2  0
 14 13  1  0
 13 12  2  0
 12 11  1  0
 11 10  2  0
 10  9  1  0
M  END

$$$$
