A71EV2A-x0351_A_301_A71EV2A-x0501+A+152+1
     RDKit          3D

 16 17  0  0  0  0  0  0  0  0999 V2000
   32.4530   13.4740    2.3040 O   0  0  0  0  0  0  0  0  0  0  0  0
   33.5460   14.1750    2.9080 S   0  0  0  0  0  0  0  0  0  0  0  0
   33.7280   15.5690    2.6290 O   0  0  0  0  0  0  0  0  0  0  0  0
   35.0560   13.3510    2.4440 C   0  0  0  0  0  0  0  0  0  0  0  0
   36.2820   14.1700    2.7720 C   0  0  0  0  0  0  0  0  0  0  0  0
   33.3530   14.0370    4.5240 N   0  0  0  0  0  0  0  0  0  0  0  0
   34.1880   13.2050    5.4010 C   0  0  0  0  0  0  0  0  0  0  0  0
   33.4670   11.9510    5.8270 C   0  0  0  0  0  0  0  0  0  0  0  0
   32.3380   12.0300    6.6400 C   0  0  0  0  0  0  0  0  0  0  0  0
   31.8080   10.8670    7.1560 C   0  0  0  0  0  0  0  0  0  0  0  0
   30.7500   10.7170    8.0260 O   0  0  0  0  0  0  0  0  0  0  0  0
   30.5930    9.3050    8.1920 C   0  0  0  0  0  0  0  0  0  0  0  0
   31.7000    8.6580    7.5660 O   0  0  0  0  0  0  0  0  0  0  0  0
   32.3500    9.6450    6.8580 C   0  0  0  0  0  0  0  0  0  0  0  0
   33.4320    9.5310    6.0080 C   0  0  0  0  0  0  0  0  0  0  0  0
   33.9830   10.6980    5.5030 C   0  0  0  0  0  0  0  0  0  0  0  0
  5  4  1  0
  4  2  1  0
  3  2  2  0
  2  1  2  0
  6  2  1  0
  7  6  1  0
  8  7  1  0
  8 16  2  0
 16 15  1  0
 15 14  2  0
 14 13  1  0
 13 12  1  0
 12 11  1  0
 11 10  1  0
 14 10  1  0
 10  9  2  0
  9  8  1  0
M  END

$$$$
