A71EV2A-x0911_A_147_A71EV2A-x0528+A+147+1
     RDKit          3D

 15 16  0  0  0  0  0  0  0  0999 V2000
   -1.1420   14.9090   19.7990 O   0  0  0  0  0  0  0  0  0  0  0  0
   -0.3800   14.1000   19.3030 C   0  0  0  0  0  0  0  0  0  0  0  0
   -0.3860   13.8430   17.8100 C   0  0  2  0  0  0  0  0  0  0  0  0
   -1.3150   14.7680   17.0590 C   0  0  0  0  0  0  0  0  0  0  0  0
   -1.5880   14.1190   15.7570 N   0  0  0  0  0  0  0  0  0  0  0  0
   -1.4290   12.6530   15.9450 C   0  0  0  0  0  0  0  0  0  0  0  0
   -0.9430   12.4630   17.4270 C   0  0  0  0  0  0  0  0  0  0  0  0
    0.4840   13.4060   20.0840 N   0  0  0  0  0  0  0  0  0  0  0  0
    0.1850   13.2530   21.5020 C   0  0  0  0  0  0  0  0  0  0  0  0
    1.7020   12.7900   19.6390 C   0  0  0  0  0  0  0  0  0  0  0  0
    2.5160   13.4310   18.7130 C   0  0  0  0  0  0  0  0  0  0  0  0
    3.7160   12.8520   18.3410 C   0  0  0  0  0  0  0  0  0  0  0  0
    4.1080   11.6490   18.8850 C   0  0  0  0  0  0  0  0  0  0  0  0
    3.3060   11.0150   19.8050 C   0  0  0  0  0  0  0  0  0  0  0  0
    2.0990   11.5760   20.1840 C   0  0  0  0  0  0  0  0  0  0  0  0
  9  8  1  0
  8  2  1  0
  2  1  2  0
  3  2  1  1
  3  7  1  0
  7  6  1  0
  6  5  1  0
  5  4  1  0
  4  3  1  0
 10  8  1  0
 10 15  2  0
 15 14  1  0
 14 13  2  0
 13 12  1  0
 12 11  2  0
 11 10  1  0
M  END
