A71EV2A-x1180_A_151_A71EV2A-x0501+A+152+1
     RDKit          3D

  6  6  0  0  0  0  0  0  0  0999 V2000
   38.0010   12.7730   13.4920 Cl  0  0  0  0  0  0  0  0  0  0  0  0
   37.4040   11.5800   12.3810 C   0  0  0  0  0  0  0  0  0  0  0  0
   36.2820   10.8310   12.5800 N   0  0  0  0  0  0  0  0  0  0  0  0
   36.2070    9.9900   11.5600 C   0  0  0  0  0  0  0  0  0  0  0  0
   37.2210   10.1560   10.6940 N   0  0  0  0  0  0  0  0  0  0  0  0
   38.0050   11.1720   11.1670 C   0  0  0  0  0  0  0  0  0  0  0  0
  2  1  1  0
  2  6  2  0
  6  5  1  0
  5  4  1  0
  4  3  2  0
  3  2  1  0
M  END

$$$$
