A71EV2A-x1068_A_147_A71EV2A-x1068+A+147+1
     RDKit          3D

  7  7  0  0  0  0  0  0  0  0999 V2000
   14.5550   -4.5670    0.5560 N   0  0  0  0  0  0  0  0  0  0  0  0
   15.7030   -4.8060    1.1840 C   0  0  0  0  0  0  0  0  0  0  0  0
   16.4610   -5.8290    0.7340 N   0  0  0  0  0  0  0  0  0  0  0  0
   17.6330   -6.0120    1.3580 C   0  0  0  0  0  0  0  0  0  0  0  0
   18.0700   -5.2260    2.4080 C   0  0  0  0  0  0  0  0  0  0  0  0
   17.2180   -4.2230    2.7970 C   0  0  0  0  0  0  0  0  0  0  0  0
   16.0380   -3.9920    2.2160 N   0  0  0  0  0  0  0  0  0  0  0  0
  2  1  1  0
  2  7  2  0
  7  6  1  0
  6  5  2  0
  5  4  1  0
  4  3  2  0
  3  2  1  0
M  END
