A71EV2A-x1255_B_201_A71EV2A-x0501+A+152+1
     RDKit          3D

 12 12  0  0  0  0  0  0  0  0999 V2000
   30.7100    9.1450    8.0310 Br  0  0  0  0  0  0  0  0  0  0  0  0
   32.0070    9.8500    6.8550 C   0  0  0  0  0  0  0  0  0  0  0  0
   32.0420   11.1820    6.6080 C   0  0  0  0  0  0  0  0  0  0  0  0
   33.0180   11.7340    5.7090 C   0  0  0  0  0  0  0  0  0  0  0  0
   33.1230   12.9290    5.4330 O   0  0  0  0  0  0  0  0  0  0  0  0
   32.9240    8.9520    6.2560 C   0  0  0  0  0  0  0  0  0  0  0  0
   33.8370    9.4720    5.4160 C   0  0  0  0  0  0  0  0  0  0  0  0
   33.8950   10.8110    5.1310 N   0  0  0  0  0  0  0  0  0  0  0  0
   34.8850   11.3010    4.1570 C   0  0  0  0  0  0  0  0  0  0  0  0
   34.2870   11.4860    2.7790 C   0  0  0  0  0  0  0  0  0  0  0  0
   34.8790   10.5720    1.8670 O   0  0  0  0  0  0  0  0  0  0  0  0
   34.6250    9.1940    2.1290 C   0  0  0  0  0  0  0  0  0  0  0  0
  5  4  2  0
  4  8  1  0
  9  8  1  0
 10  9  1  0
 11 10  1  0
 12 11  1  0
  8  7  1  0
  7  6  2  0
  6  2  1  0
  2  1  1  0
  3  2  2  0
  4  3  1  0
M  END
