A71EV2A-x0525_A_147_A71EV2A-x0528+A+147+1
     RDKit          3D

 11 11  0  0  0  0  0  0  0  0999 V2000
   14.9500   26.4540   22.3340 O   0  0  0  0  0  0  0  0  0  0  0  0
   14.1270   25.6700   22.6600 C   0  0  0  0  0  0  0  0  0  0  0  0
   14.2220   24.8560   23.7740 C   0  0  0  0  0  0  0  0  0  0  0  0
   13.0990   24.3960   24.3640 C   0  0  0  0  0  0  0  0  0  0  0  0
   12.9020   25.8060   22.1520 N   0  0  0  0  0  0  0  0  0  0  0  0
   11.7770   25.4160   22.7720 C   0  0  0  0  0  0  0  0  0  0  0  0
   11.7980   24.7580   23.8660 C   0  0  0  0  0  0  0  0  0  0  0  0
   10.5930   24.4980   24.5170 O   0  0  0  0  0  0  0  0  0  0  0  0
    9.7870   25.3900   24.9130 C   0  0  0  0  0  0  0  0  0  0  0  0
   10.5320   25.8080   25.9310 F   0  0  0  0  0  0  0  0  0  0  0  0
    8.5340   25.0100   25.0080 F   0  0  0  0  0  0  0  0  0  0  0  0
 10  9  1  0
 11  9  1  0
  9  8  1  0
  8  7  1  0
  7  4  1  0
  4  3  2  0
  3  2  1  0
  2  1  2  0
  5  2  1  0
  6  5  1  0
  7  6  2  0
M  END
