A71EV2A-x0365_A_201_A71EV2A-x0528+A+147+1
     RDKit          3D

 14 15  0  0  0  0  0  0  0  0999 V2000
   10.2520   10.0460   22.6640 C   0  0  0  0  0  0  0  0  0  0  0  0
    9.4480   10.7500   23.6510 N   0  0  0  0  0  0  0  0  0  0  0  0
    8.5380   10.0640   24.3580 N   0  0  0  0  0  0  0  0  0  0  0  0
    7.9080   11.0320   25.0660 C   0  0  0  0  0  0  0  0  0  0  0  0
    8.4480   12.3580   24.8070 C   0  0  0  0  0  0  0  0  0  0  0  0
    9.4470   12.1280   23.9180 C   0  0  0  0  0  0  0  0  0  0  0  0
    6.8980   10.8150   25.9180 N   0  0  0  0  0  0  0  0  0  0  0  0
    6.2110   11.9230   26.5540 C   0  0  0  0  0  0  0  0  0  0  0  0
    6.8860   12.2670   27.8540 C   0  0  0  0  0  0  0  0  0  0  0  0
    7.4800   13.5070   28.0700 C   0  0  0  0  0  0  0  0  0  0  0  0
    8.1210   13.7920   29.2670 C   0  0  0  0  0  0  0  0  0  0  0  0
    8.1980   12.8300   30.2560 C   0  0  0  0  0  0  0  0  0  0  0  0
    7.6060   11.5860   30.0530 C   0  0  0  0  0  0  0  0  0  0  0  0
    6.9540   11.3130   28.8600 C   0  0  0  0  0  0  0  0  0  0  0  0
  2  1  1  0
  2  6  1  0
  6  5  2  0
  5  4  1  0
  7  4  1  0
  8  7  1  0
  9  8  1  0
  9 14  2  0
 14 13  1  0
 13 12  2  0
 12 11  1  0
 11 10  2  0
 10  9  1  0
  4  3  2  0
  3  2  1  0
M  END
