A71EV2A-x0375_A_201_A71EV2A-x0528+A+147+1
     RDKit          3D

 12 12  0  0  0  0  0  0  0  0999 V2000
    4.1910    7.6810   26.0230 S   0  0  0  0  0  0  0  0  0  0  0  0
    4.3740    8.7610   27.3180 C   0  0  0  0  0  0  0  0  0  0  0  0
    3.3440    9.2390   27.9960 N   0  0  0  0  0  0  0  0  0  0  0  0
    5.5960    9.2250   27.6420 N   0  0  0  0  0  0  0  0  0  0  0  0
    5.9840   10.2600   28.5330 C   0  0  0  0  0  0  0  0  0  0  0  0
    6.1880    9.9510   29.8940 C   0  0  0  0  0  0  0  0  0  0  0  0
    5.8160    8.6900   30.2600 O   0  0  0  0  0  0  0  0  0  0  0  0
    4.6000    8.5530   30.9910 C   0  0  0  0  0  0  0  0  0  0  0  0
    6.2380   11.5560   28.0910 C   0  0  0  0  0  0  0  0  0  0  0  0
    6.7250   12.5050   28.9730 C   0  0  0  0  0  0  0  0  0  0  0  0
    6.9460   12.1840   30.2980 C   0  0  0  0  0  0  0  0  0  0  0  0
    6.6740   10.9090   30.7680 C   0  0  0  0  0  0  0  0  0  0  0  0
  8  7  1  0
  7  6  1  0
  6 12  2  0
 12 11  1  0
 11 10  2  0
 10  9  1  0
  9  5  2  0
  6  5  1  0
  5  4  1  0
  4  2  1  0
  2  1  2  0
  3  2  1  0
M  END
