A71EV2A-x0446_A_147_A71EV2A-x0501+A+152+1
     RDKit          3D

 10 10  0  0  0  0  0  0  0  0999 V2000
   31.0520   11.2190    6.5860 O   0  0  0  0  0  0  0  0  0  0  0  0
   31.9600   10.4760    6.9460 C   0  0  0  0  0  0  0  0  0  0  0  0
   31.7900    9.4880    7.8200 N   0  0  0  0  0  0  0  0  0  0  0  0
   30.6120    9.3940    8.6610 C   0  0  0  0  0  0  0  0  0  0  0  0
   33.3120   10.6370    6.3820 C   0  0  0  0  0  0  0  0  0  0  0  0
   33.6710   12.2030    5.7350 S   0  0  0  0  0  0  0  0  0  0  0  0
   35.2270   11.6180    5.2400 C   0  0  0  0  0  0  0  0  0  0  0  0
   36.1950   12.4900    4.5150 C   0  0  0  0  0  0  0  0  0  0  0  0
   35.4670   10.3730    5.5370 N   0  0  0  0  0  0  0  0  0  0  0  0
   34.3830    9.8260    6.1840 C   0  0  0  0  0  0  0  0  0  0  0  0
  4  3  1  0
  3  2  1  0
  2  1  2  0
  5  2  1  0
  5 10  2  0
 10  9  1  0
  9  7  2  0
  8  7  1  0
  7  6  1  0
  6  5  1  0
M  END
