A71EV2A-x0278_A_201_A71EV2A-x0501+A+152+1
     RDKit          3D

 15 16  0  0  0  0  0  0  0  0999 V2000
   27.9640   20.4050    4.3390 O   0  0  0  0  0  0  0  0  0  0  0  0
   28.0100   21.7910    4.6830 S   0  0  0  0  0  0  0  0  0  0  0  0
   27.6710   22.2120    6.0060 O   0  0  0  0  0  0  0  0  0  0  0  0
   29.5380   22.2950    4.4050 N   0  0  0  0  0  0  0  0  0  0  0  0
   30.0630   23.4800    5.1130 C   0  0  0  0  0  0  0  0  0  0  0  0
   31.4500   23.5630    4.4980 C   0  0  0  0  0  0  0  0  0  0  0  0
   30.6080   21.3210    4.1110 C   0  0  0  0  0  0  0  0  0  0  0  0
   31.9000   22.1010    4.3840 C   0  0  1  0  0  0  0  0  0  0  0  0
   32.8850   21.8460    3.3280 N   0  0  0  0  0  0  0  0  0  0  0  0
   26.9880   22.6570    3.5400 C   0  0  0  0  0  0  0  0  0  0  0  0
   26.8910   22.2050    2.2320 C   0  0  0  0  0  0  0  0  0  0  0  0
   26.1710   22.9490    1.3100 C   0  0  0  0  0  0  0  0  0  0  0  0
   25.5600   24.1240    1.6870 C   0  0  0  0  0  0  0  0  0  0  0  0
   25.6560   24.5630    2.9890 C   0  0  0  0  0  0  0  0  0  0  0  0
   26.3550   23.8260    3.9330 C   0  0  0  0  0  0  0  0  0  0  0  0
  8  9  1  6
  8  6  1  0
  6  5  1  0
  5  4  1  0
  7  4  1  0
  8  7  1  0
  4  2  1  0
  3  2  2  0
  2  1  2  0
 10  2  1  0
 10 15  2  0
 15 14  1  0
 14 13  2  0
 13 12  1  0
 12 11  2  0
 11 10  1  0
M  END

$$$$
