A71EV2A-x0831_A_147_A71EV2A-x0395+A+148+1
     RDKit          3D

 15 16  0  0  0  0  0  0  0  0999 V2000
   10.3400   -7.5290   11.7690 N   0  0  0  0  0  0  0  0  0  0  0  0
   11.6430   -7.9180   11.9880 C   0  0  0  0  0  0  0  0  0  0  0  0
   12.4350   -7.2500   12.9220 C   0  0  0  0  0  0  0  0  0  0  0  0
   13.7360   -7.6640   13.1670 C   0  0  0  0  0  0  0  0  0  0  0  0
   14.2670   -8.7500   12.4890 C   0  0  0  0  0  0  0  0  0  0  0  0
   13.4880   -9.4140   11.5530 C   0  0  0  0  0  0  0  0  0  0  0  0
   12.1890   -9.0030   11.2980 C   0  0  0  0  0  0  0  0  0  0  0  0
   14.5920   -7.0590   14.0560 O   0  0  0  0  0  0  0  0  0  0  0  0
   14.0530   -6.5890   15.3020 C   0  0  0  0  0  0  0  0  0  0  0  0
   15.1070   -5.8920   16.1130 C   0  0  0  0  0  0  0  0  0  0  0  0
   16.3700   -6.4400   16.2790 C   0  0  0  0  0  0  0  0  0  0  0  0
   17.3440   -5.7720   17.0050 C   0  0  0  0  0  0  0  0  0  0  0  0
   17.0670   -4.5460   17.5670 C   0  0  0  0  0  0  0  0  0  0  0  0
   15.8170   -3.9900   17.4110 C   0  0  0  0  0  0  0  0  0  0  0  0
   14.8390   -4.6630   16.6940 C   0  0  0  0  0  0  0  0  0  0  0  0
  2  1  1  0
  2  7  2  0
  7  6  1  0
  6  5  2  0
  5  4  1  0
  8  4  1  0
  9  8  1  0
 10  9  1  0
 10 15  2  0
 15 14  1  0
 14 13  2  0
 13 12  1  0
 12 11  2  0
 11 10  1  0
  4  3  2  0
  3  2  1  0
M  END

$$$$
