A71EV2A-x1145_A_201_A71EV2A-x0395+A+148+1
     RDKit          3D

 14 15  0  0  0  0  0  0  0  0999 V2000
   13.7660   -7.5190   14.6040 F   0  0  0  0  0  0  0  0  0  0  0  0
   13.6980   -8.2410   13.4640 C   0  0  0  0  0  0  0  0  0  0  0  0
   14.8650   -8.5660   12.8270 C   0  0  0  0  0  0  0  0  0  0  0  0
   14.8080   -9.4670   11.7780 C   0  0  0  0  0  0  0  0  0  0  0  0
   13.6060  -10.0440   11.3890 C   0  0  0  0  0  0  0  0  0  0  0  0
   12.4430   -9.6200   12.0250 C   0  0  0  0  0  0  0  0  0  0  0  0
   12.4840   -8.7120   13.0670 C   0  0  0  0  0  0  0  0  0  0  0  0
   13.6070  -11.2600   10.4860 C   0  0  0  0  0  0  0  0  0  0  0  0
   12.7150  -11.2310    9.2350 C   0  0  2  0  0  0  0  0  0  0  0  0
   11.3130  -10.6900    9.5220 C   0  0  0  0  0  0  0  0  0  0  0  0
   10.3080  -11.2790    8.6300 N   0  0  0  0  0  0  0  0  0  0  0  0
   10.1000  -12.7080    8.9150 C   0  0  0  0  0  0  0  0  0  0  0  0
   11.4210  -13.4200    9.1740 C   0  0  0  0  0  0  0  0  0  0  0  0
   12.5860  -12.6150    8.5970 C   0  0  0  0  0  0  0  0  0  0  0  0
  2  1  1  0
  2  7  2  0
  7  6  1  0
  6  5  2  0
  8  5  1  0
  9  8  1  1
  9 14  1  0
 14 13  1  0
 13 12  1  0
 12 11  1  0
 11 10  1  0
 10  9  1  0
  5  4  1  0
  4  3  2  0
  3  2  1  0
M  END
