A71EV2A-x1148_A_201_A71EV2A-x0501+A+152+1
     RDKit          3D

  6  6  0  0  0  0  0  0  0  0999 V2000
   30.8380    9.0640    8.1960 Br  0  0  0  0  0  0  0  0  0  0  0  0
   31.8740   10.0060    6.9500 C   0  0  0  0  0  0  0  0  0  0  0  0
   31.6740   11.3170    6.6250 N   0  0  0  0  0  0  0  0  0  0  0  0
   32.5920   11.6080    5.7140 C   0  0  0  0  0  0  0  0  0  0  0  0
   33.3720   10.5550    5.4340 N   0  0  0  0  0  0  0  0  0  0  0  0
   32.9400    9.5150    6.2060 C   0  0  0  0  0  0  0  0  0  0  0  0
  2  1  1  0
  2  6  2  0
  6  5  1  0
  5  4  1  0
  4  3  2  0
  3  2  1  0
M  END
