A71EV2A-x1169_A_151_A71EV2A-x0501+A+152+1
     RDKit          3D

  7  7  0  0  0  0  0  0  0  0999 V2000
   30.5350    9.0540    8.2750 N   0  0  0  0  0  0  0  0  0  0  0  0
   31.2770    9.3620    7.5120 C   0  0  0  0  0  0  0  0  0  0  0  0
   32.2850    9.6900    6.5460 C   0  0  0  0  0  0  0  0  0  0  0  0
   33.3520    8.8730    6.3030 N   0  0  0  0  0  0  0  0  0  0  0  0
   34.0340    9.5090    5.4210 C   0  0  0  0  0  0  0  0  0  0  0  0
   33.5220   10.7000    5.0440 O   0  0  0  0  0  0  0  0  0  0  0  0
   32.3820   10.7870    5.7820 C   0  0  0  0  0  0  0  0  0  0  0  0
  2  1  3  0
  3  2  1  0
  3  7  2  0
  7  6  1  0
  6  5  1  0
  5  4  2  0
  4  3  1  0
M  END
