A71EV2A-x0365_A_201_A71EV2A-x0501+A+152+1
     RDKit          3D

 14 15  0  0  0  0  0  0  0  0999 V2000
   30.6950    8.7750    8.8550 C   0  0  0  0  0  0  0  0  0  0  0  0
   31.4980    9.3950    7.8120 N   0  0  0  0  0  0  0  0  0  0  0  0
   32.4240    8.6590    7.1800 N   0  0  0  0  0  0  0  0  0  0  0  0
   33.0470    9.5650    6.3880 C   0  0  0  0  0  0  0  0  0  0  0  0
   32.4850   10.9010    6.5160 C   0  0  0  0  0  0  0  0  0  0  0  0
   31.4820   10.7420    7.4160 C   0  0  0  0  0  0  0  0  0  0  0  0
   34.0670    9.2830    5.5680 N   0  0  0  0  0  0  0  0  0  0  0  0
   34.7440   10.3370    4.8360 C   0  0  0  0  0  0  0  0  0  0  0  0
   34.0760   10.5460    3.5030 C   0  0  0  0  0  0  0  0  0  0  0  0
   33.4670   11.7510    3.1670 C   0  0  0  0  0  0  0  0  0  0  0  0
   32.8320   11.9110    1.9430 C   0  0  0  0  0  0  0  0  0  0  0  0
   32.7780   10.8590    1.0490 C   0  0  0  0  0  0  0  0  0  0  0  0
   33.3850    9.6500    1.3730 C   0  0  0  0  0  0  0  0  0  0  0  0
   34.0310    9.5000    2.5920 C   0  0  0  0  0  0  0  0  0  0  0  0
  2  1  1  0
  2  6  1  0
  6  5  2  0
  5  4  1  0
  7  4  1  0
  8  7  1  0
  9  8  1  0
  9 14  2  0
 14 13  1  0
 13 12  2  0
 12 11  1  0
 11 10  2  0
 10  9  1  0
  4  3  2  0
  3  2  1  0
M  END
