A71EV2A-x0432_A_147_A71EV2A-x0432+A+147+1
     RDKit          3D

 12 13  0  0  0  0  0  0  0  0999 V2000
    0.9920   -6.1180   15.6980 N   0  0  0  0  0  0  0  0  0  0  0  0
    2.2420   -6.3970   15.1950 C   0  0  0  0  0  0  0  0  0  0  0  0
    2.7490   -7.7000   15.2230 C   0  0  0  0  0  0  0  0  0  0  0  0
    4.0070   -7.9810   14.7290 C   0  0  0  0  0  0  0  0  0  0  0  0
    4.8050   -6.9720   14.1980 C   0  0  0  0  0  0  0  0  0  0  0  0
    4.3170   -5.6670   14.1940 C   0  0  0  0  0  0  0  0  0  0  0  0
    3.0490   -5.3850   14.6610 C   0  0  0  0  0  0  0  0  0  0  0  0
    6.1330   -7.2710   13.6880 C   0  0  0  0  0  0  0  0  0  0  0  0
    6.8420   -6.2740   13.1390 O   0  0  0  0  0  0  0  0  0  0  0  0
    8.0920   -6.8330   12.7980 N   0  0  0  0  0  0  0  0  0  0  0  0
    7.9730   -8.0960   13.1640 C   0  0  0  0  0  0  0  0  0  0  0  0
    6.7670   -8.3980   13.7080 N   0  0  0  0  0  0  0  0  0  0  0  0
  2  1  1  0
  2  7  2  0
  7  6  1  0
  6  5  2  0
  5  4  1  0
  4  3  2  0
  3  2  1  0
  8  5  1  0
  8 12  2  0
 12 11  1  0
 11 10  2  0
 10  9  1  0
  9  8  1  0
M  END

$$$$
