A71EV2A-x0450_A_201_A71EV2A-x0501+A+152+1
     RDKit          3D

 13 13  0  0  0  0  0  0  0  0999 V2000
   32.6480   13.4080    5.2780 Br  0  0  0  0  0  0  0  0  0  0  0  0
   32.6310   11.5950    5.8250 C   0  0  0  0  0  0  0  0  0  0  0  0
   31.6510   11.1870    6.7180 C   0  0  0  0  0  0  0  0  0  0  0  0
   31.6500    9.8690    7.1100 C   0  0  0  0  0  0  0  0  0  0  0  0
   30.6690    9.4370    7.9500 F   0  0  0  0  0  0  0  0  0  0  0  0
   32.5690    8.9630    6.6740 C   0  0  0  0  0  0  0  0  0  0  0  0
   33.5410    9.3870    5.7850 C   0  0  0  0  0  0  0  0  0  0  0  0
   33.5860   10.7050    5.3370 C   0  0  0  0  0  0  0  0  0  0  0  0
   34.5940   11.0870    4.2890 C   0  0  0  0  0  0  0  0  0  0  0  0
   34.4790   10.6060    3.1760 O   0  0  0  0  0  0  0  0  0  0  0  0
   35.5780   11.9470    4.6050 N   0  0  0  0  0  0  0  0  0  0  0  0
   36.5760   12.3150    3.5970 C   0  0  0  0  0  0  0  0  0  0  0  0
   35.7650   12.6200    5.8910 C   0  0  0  0  0  0  0  0  0  0  0  0
 13 11  1  0
 12 11  1  0
 11  9  1  0
 10  9  2  0
  9  8  1  0
  8  7  2  0
  7  6  1  0
  6  4  2  0
  5  4  1  0
  4  3  1  0
  3  2  2  0
  8  2  1  0
  2  1  1  0
M  END
