A71EV2A-x0194_A_147_A71EV2A-x0395+A+148+1
     RDKit          3D

 15 16  0  0  0  0  0  0  0  0999 V2000
   18.6750   -4.7680   22.5120 F   0  0  0  0  0  0  0  0  0  0  0  0
   19.4250   -3.6910   22.8290 C   0  0  0  0  0  0  0  0  0  0  0  0
   20.1020   -3.7050   24.0320 C   0  0  0  0  0  0  0  0  0  0  0  0
   20.8720   -2.5830   24.3350 C   0  0  0  0  0  0  0  0  0  0  0  0
   20.9540   -1.5160   23.4520 C   0  0  0  0  0  0  0  0  0  0  0  0
   20.2680   -1.5500   22.2600 C   0  0  0  0  0  0  0  0  0  0  0  0
   19.4910   -2.6490   21.9350 C   0  0  0  0  0  0  0  0  0  0  0  0
   20.0700   -4.9070   24.9440 C   0  0  0  0  0  0  0  0  0  0  0  0
   19.0500   -4.8290   25.9970 N   0  0  0  0  0  0  0  0  0  0  0  0
   19.5810   -5.2160   27.3160 C   0  0  0  0  0  0  0  0  0  0  0  0
   20.4290   -4.0760   27.8520 C   0  0  0  0  0  0  0  0  0  0  0  0
   19.7680   -3.4440   29.0490 C   0  0  0  0  0  0  0  0  0  0  0  0
   19.6460   -4.3720   30.1340 O   0  0  0  0  0  0  0  0  0  0  0  0
   19.2550   -5.6880   29.6950 C   0  0  0  0  0  0  0  0  0  0  0  0
   18.5660   -5.6500   28.3530 C   0  0  0  0  0  0  0  0  0  0  0  0
  2  1  1  0
  2  7  2  0
  7  6  1  0
  6  5  2  0
  5  4  1  0
  4  3  2  0
  3  2  1  0
  8  3  1  0
  9  8  1  0
 10  9  1  0
 10 15  1  0
 15 14  1  0
 14 13  1  0
 13 12  1  0
 12 11  1  0
 11 10  1  0
M  END

$$$$
