A71EV2A-x0473_A_147_A71EV2A-x0528+A+147+1
     RDKit          3D

 15 16  0  0  0  0  0  0  0  0999 V2000
   -0.2040   13.2150   20.7970 O   0  0  0  0  0  0  0  0  0  0  0  0
    0.8300   13.9740   20.1980 S   0  0  0  0  0  0  0  0  0  0  0  0
    1.5470   14.8650   21.0680 O   0  0  0  0  0  0  0  0  0  0  0  0
    2.0880   12.8240   19.4360 C   0  0  0  0  0  0  0  0  0  0  0  0
    2.8260   12.1130   20.5690 C   0  0  0  0  0  0  0  0  0  0  0  0
    3.7580   11.0760   20.0150 C   0  0  0  0  0  0  0  0  0  0  0  0
    4.7750   11.6480   19.3250 O   0  0  0  0  0  0  0  0  0  0  0  0
    4.2340   12.4020   18.2100 C   0  0  0  0  0  0  0  0  0  0  0  0
    3.2530   13.4660   18.6750 C   0  0  0  0  0  0  0  0  0  0  0  0
    0.2070   14.7750   18.9490 N   0  0  0  0  0  0  0  0  0  0  0  0
   -0.7920   14.2420   18.0060 C   0  0  0  0  0  0  0  0  0  0  0  0
   -1.2900   15.2720   16.9990 C   0  0  0  0  0  0  0  0  0  0  0  0
   -1.7740   14.4490   15.8210 C   0  0  0  0  0  0  0  0  0  0  0  0
   -1.0970   13.1050   15.9480 C   0  0  0  0  0  0  0  0  0  0  0  0
   -0.1860   13.2000   17.1620 C   0  0  0  0  0  0  0  0  0  0  0  0
  3  2  2  0
  2  1  2  0
 10  2  1  0
 11 10  1  0
 11 15  1  0
 15 14  1  0
 14 13  1  0
 13 12  1  0
 12 11  1  0
  4  2  1  0
  4  9  1  0
  9  8  1  0
  8  7  1  0
  7  6  1  0
  6  5  1  0
  5  4  1  0
M  END
