A71EV2A-x1148_A_147_A71EV2A-x0395+A+148+1
     RDKit          3D

  6  6  0  0  0  0  0  0  0  0999 V2000
   13.5570   -8.2740   13.8030 Br  0  0  0  0  0  0  0  0  0  0  0  0
   12.2500   -8.3670   12.4610 C   0  0  0  0  0  0  0  0  0  0  0  0
   11.1780   -7.5260   12.3870 N   0  0  0  0  0  0  0  0  0  0  0  0
   10.4770   -7.9280   11.3370 C   0  0  0  0  0  0  0  0  0  0  0  0
   11.0410   -8.9780   10.7260 N   0  0  0  0  0  0  0  0  0  0  0  0
   12.1790   -9.2860   11.4170 C   0  0  0  0  0  0  0  0  0  0  0  0
  2  1  1  0
  2  6  2  0
  6  5  1  0
  5  4  1  0
  4  3  2  0
  3  2  1  0
M  END
