A71EV2A-x0211_A_147_A71EV2A-x0541+A+147+1
     RDKit          3D

 14 14  0  0  0  0  0  0  0  0999 V2000
    7.0020   10.1190    2.3870 F   0  0  0  0  0  0  0  0  0  0  0  0
    7.6450   10.9870    2.9790 C   0  0  0  0  0  0  0  0  0  0  0  0
    7.9630   10.9560    4.1700 F   0  0  0  0  0  0  0  0  0  0  0  0
    6.8930   12.1090    3.0730 O   0  0  0  0  0  0  0  0  0  0  0  0
    7.6210   13.1600    2.6460 C   0  0  0  0  0  0  0  0  0  0  0  0
    7.7120   14.2490    3.5030 C   0  0  0  0  0  0  0  0  0  0  0  0
    6.7060   14.3230    4.9730 S   0  0  0  0  0  0  0  0  0  0  0  0
    5.3380   14.5030    4.5170 O   0  0  0  0  0  0  0  0  0  0  0  0
    6.9070   13.2090    5.7670 O   0  0  0  0  0  0  0  0  0  0  0  0
    7.0750   15.6150    5.7530 N   0  0  0  0  0  0  0  0  0  0  0  0
    8.3350   13.1590    1.4820 C   0  0  0  0  0  0  0  0  0  0  0  0
    9.2430   14.1490    1.2320 C   0  0  0  0  0  0  0  0  0  0  0  0
    9.3420   15.2150    2.0590 C   0  0  0  0  0  0  0  0  0  0  0  0
    8.5460   15.3160    3.1830 C   0  0  0  0  0  0  0  0  0  0  0  0
 10  7  1  0
  8  7  2  0
  9  7  2  0
  7  6  1  0
  6 14  2  0
 14 13  1  0
 13 12  2  0
 12 11  1  0
 11  5  2  0
  6  5  1  0
  5  4  1  0
  4  2  1  0
  3  2  1  0
  2  1  1  0
M  END
