A71EV2A-x1293_A_151_A71EV2A-x0395+A+148+1
     RDKit          3D

 10 11  0  0  0  0  0  0  0  0999 V2000
   19.7060    1.6390   20.6150 N   0  0  0  0  0  0  0  0  0  0  0  0
   19.3810    0.3540   20.4430 C   0  0  0  0  0  0  0  0  0  0  0  0
   19.7760   -0.6440   21.3320 N   0  0  0  0  0  0  0  0  0  0  0  0
   19.1660   -1.7970   20.8350 C   0  0  0  0  0  0  0  0  0  0  0  0
   18.4870   -1.5230   19.7210 N   0  0  0  0  0  0  0  0  0  0  0  0
   18.6260   -0.1510   19.4760 N   0  0  0  0  0  0  0  0  0  0  0  0
   20.5410   -0.6570   22.4850 C   0  0  0  0  0  0  0  0  0  0  0  0
   20.6830   -1.8070   23.1770 C   0  0  0  0  0  0  0  0  0  0  0  0
   20.0630   -2.9920   22.7170 C   0  0  0  0  0  0  0  0  0  0  0  0
   19.3230   -2.9970   21.5730 C   0  0  0  0  0  0  0  0  0  0  0  0
  2  1  1  0
  2  6  2  0
  6  5  1  0
  5  4  2  0
  4 10  1  0
 10  9  2  0
  9  8  1  0
  8  7  2  0
  7  3  1  0
  3  2  1  0
  4  3  1  0
M  END
