A71EV2A-x0875_A_147_A71EV2A-x0395+A+148+1
     RDKit          3D

 14 14  0  0  0  0  0  0  0  0999 V2000
   11.8850  -13.2460    8.1180 O   0  0  0  0  0  0  0  0  0  0  0  0
   11.8030  -12.6280    9.1570 C   0  0  0  0  0  0  0  0  0  0  0  0
   11.1710  -13.0680   10.2130 O   0  0  0  0  0  0  0  0  0  0  0  0
   12.3960  -11.2490    9.3420 C   0  0  0  0  0  0  0  0  0  0  0  0
   11.3190  -10.2810    9.8260 C   0  0  0  0  0  0  0  0  0  0  0  0
   11.3310  -10.2610   11.3470 C   0  0  0  0  0  0  0  0  0  0  0  0
   13.5760  -11.2300   10.3280 C   0  0  0  0  0  0  0  0  0  0  0  0
   13.7230   -9.8580   11.0020 C   0  0  0  0  0  0  0  0  0  0  0  0
   12.5290   -9.5330   11.8080 N   0  0  0  0  0  0  0  0  0  0  0  0
   12.4060   -8.0440   12.4780 S   0  0  0  0  0  0  0  0  0  0  0  0
   13.0320   -8.1150   13.7610 O   0  0  0  0  0  0  0  0  0  0  0  0
   12.9220   -7.1180   11.5270 O   0  0  0  0  0  0  0  0  0  0  0  0
   10.6720   -7.7010   12.7180 C   0  0  0  0  0  0  0  0  0  0  0  0
    9.8710   -7.7000   11.4350 C   0  0  0  0  0  0  0  0  0  0  0  0
 14 13  1  0
 13 10  1  0
 11 10  2  0
 12 10  2  0
 10  9  1  0
  9  6  1  0
  6  5  1  0
  5  4  1  0
  7  4  1  0
  8  7  1  0
  9  8  1  0
  4  2  1  0
  2  1  2  0
  3  2  1  0
M  END

$$$$
