A71EV2A-x0211_A_301_A71EV2A-x0211+A+301+1
     RDKit          3D

 14 14  0  0  0  0  0  0  0  0999 V2000
   19.9680   -9.2960   12.0660 F   0  0  0  0  0  0  0  0  0  0  0  0
   19.6930   -8.0600   12.2590 C   0  0  0  0  0  0  0  0  0  0  0  0
   20.6720   -7.2890   12.6210 F   0  0  0  0  0  0  0  0  0  0  0  0
   19.7150   -7.6020   11.0680 O   0  0  0  0  0  0  0  0  0  0  0  0
   19.2440   -7.7050    9.8040 C   0  0  0  0  0  0  0  0  0  0  0  0
   17.9150   -7.3520    9.5930 C   0  0  0  0  0  0  0  0  0  0  0  0
   16.8470   -6.7950   10.8950 S   0  0  0  0  0  0  0  0  0  0  0  0
   15.5770   -6.5390   10.3030 O   0  0  0  0  0  0  0  0  0  0  0  0
   17.5050   -5.7390   11.6000 O   0  0  0  0  0  0  0  0  0  0  0  0
   16.6300   -7.9650   11.9530 N   0  0  0  0  0  0  0  0  0  0  0  0
   20.0260   -8.0350    8.7300 C   0  0  0  0  0  0  0  0  0  0  0  0
   19.5110   -7.9440    7.4600 C   0  0  0  0  0  0  0  0  0  0  0  0
   18.2250   -7.6310    7.2580 C   0  0  0  0  0  0  0  0  0  0  0  0
   17.3910   -7.3750    8.3150 C   0  0  0  0  0  0  0  0  0  0  0  0
 10  7  1  0
  8  7  2  0
  9  7  2  0
  7  6  1  0
  6 14  2  0
 14 13  1  0
 13 12  2  0
 12 11  1  0
 11  5  2  0
  6  5  1  0
  5  4  1  0
  4  2  1  0
  3  2  1  0
  2  1  1  0
M  END
