A71EV2A-x0501_A_151_A71EV2A-x0501+A+152+1
     RDKit          3D

 13 14  0  0  0  0  0  0  0  0999 V2000
   30.9520    8.3180    8.6590 C   0  0  0  0  0  0  0  0  0  0  0  0
   30.9460    9.6750    8.2080 O   0  0  0  0  0  0  0  0  0  0  0  0
   31.8140   10.0300    7.2110 C   0  0  0  0  0  0  0  0  0  0  0  0
   31.7270   11.3610    6.7950 C   0  0  0  0  0  0  0  0  0  0  0  0
   32.5970   11.8140    5.7970 C   0  0  0  0  0  0  0  0  0  0  0  0
   33.5160   10.9540    5.2310 C   0  0  0  0  0  0  0  0  0  0  0  0
   33.5870    9.6460    5.6500 C   0  0  0  0  0  0  0  0  0  0  0  0
   32.7350    9.1730    6.6330 C   0  0  0  0  0  0  0  0  0  0  0  0
   30.7590   12.2910    7.3670 C   0  0  0  0  0  0  0  0  0  0  0  0
   30.0880   13.1950    6.6020 O   0  0  0  0  0  0  0  0  0  0  0  0
   29.2160   13.7740    7.4660 C   0  0  0  0  0  0  0  0  0  0  0  0
   29.3670   13.2580    8.6800 N   0  0  0  0  0  0  0  0  0  0  0  0
   30.3810   12.3180    8.6000 N   0  0  0  0  0  0  0  0  0  0  0  0
  2  1  1  0
  3  2  1  0
  3  8  2  0
  8  7  1  0
  7  6  2  0
  6  5  1  0
  5  4  2  0
  4  3  1  0
  9  4  1  0
  9 13  2  0
 13 12  1  0
 12 11  2  0
 11 10  1  0
 10  9  1  0
M  END

$$$$
