A71EV2A-x0351_A_301_A71EV2A-x0528+A+147+1
     RDKit          3D

 16 17  0  0  0  0  0  0  0  0999 V2000
    9.0370   15.9290   28.3050 O   0  0  0  0  0  0  0  0  0  0  0  0
    7.8920   16.5190   27.6780 S   0  0  0  0  0  0  0  0  0  0  0  0
    7.7040   17.9380   27.7500 O   0  0  0  0  0  0  0  0  0  0  0  0
    6.4330   15.7660   28.3660 C   0  0  0  0  0  0  0  0  0  0  0  0
    5.1720   16.5140   28.0020 C   0  0  0  0  0  0  0  0  0  0  0  0
    7.9790   16.1330   26.0930 N   0  0  0  0  0  0  0  0  0  0  0  0
    7.1020   15.1700   25.4150 C   0  0  0  0  0  0  0  0  0  0  0  0
    7.8150   13.8700   25.1380 C   0  0  0  0  0  0  0  0  0  0  0  0
    8.8860   13.8310   24.2470 C   0  0  0  0  0  0  0  0  0  0  0  0
    9.4000   12.6060   23.8800 C   0  0  0  0  0  0  0  0  0  0  0  0
   10.4000   12.3310   22.9730 O   0  0  0  0  0  0  0  0  0  0  0  0
   10.5710   10.9110   23.0160 C   0  0  0  0  0  0  0  0  0  0  0  0
    9.5210   10.3610   23.8090 O   0  0  0  0  0  0  0  0  0  0  0  0
    8.9030   11.4410   24.4000 C   0  0  0  0  0  0  0  0  0  0  0  0
    7.8820   11.4520   25.3310 C   0  0  0  0  0  0  0  0  0  0  0  0
    7.3450   12.6790   25.6870 C   0  0  0  0  0  0  0  0  0  0  0  0
  5  4  1  0
  4  2  1  0
  3  2  2  0
  2  1  2  0
  6  2  1  0
  7  6  1  0
  8  7  1  0
  8 16  2  0
 16 15  1  0
 15 14  2  0
 14 13  1  0
 13 12  1  0
 12 11  1  0
 11 10  1  0
 14 10  1  0
 10  9  2  0
  9  8  1  0
M  END
