A71EV2A-x0228_A_147_A71EV2A-x0501+A+152+1
     RDKit          3D

 11 11  0  0  0  0  0  0  0  0999 V2000
   27.0490   20.8240    4.4800 O   0  0  0  0  0  0  0  0  0  0  0  0
   27.8240   21.8960    5.0130 S   0  0  0  0  0  0  0  0  0  0  0  0
   28.0370   21.9670    6.4190 O   0  0  0  0  0  0  0  0  0  0  0  0
   27.1430   23.4140    4.4660 C   0  0  0  0  0  0  0  0  0  0  0  0
   29.2700   21.7530    4.3600 N   0  0  0  0  0  0  0  0  0  0  0  0
   30.2450   22.7160    4.8540 C   0  0  0  0  0  0  0  0  0  0  0  0
   31.6670   22.2840    4.5550 C   0  0  0  0  0  0  0  0  0  0  0  0
   31.8530   21.8930    3.1100 C   0  0  0  0  0  0  0  0  0  0  0  0
   33.0830   21.1900    3.0930 O   0  0  0  0  0  0  0  0  0  0  0  0
   30.7280   21.0300    2.5570 C   0  0  0  0  0  0  0  0  0  0  0  0
   29.3480   21.6110    2.8950 C   0  0  0  0  0  0  0  0  0  0  0  0
  4  2  1  0
  3  2  2  0
  2  1  2  0
  5  2  1  0
  5 11  1  0
 11 10  1  0
 10  8  1  0
  9  8  1  0
  8  7  1  0
  7  6  1  0
  6  5  1  0
M  END
