A71EV2A-x1080_A_201_A71EV2A-x0501+A+152+1
     RDKit          3D

  6  5  0  0  0  0  0  0  0  0999 V2000
   35.6890   12.8360    6.8550 O   0  0  0  0  0  0  0  0  0  0  0  0
   35.1910   13.5430    7.7240 C   0  0  0  0  0  0  0  0  0  0  0  0
   35.4450   14.8310    7.8290 N   0  0  0  0  0  0  0  0  0  0  0  0
   34.3910   15.7370    7.9280 O   0  0  0  0  0  0  0  0  0  0  0  0
   34.2310   13.0000    8.7470 C   0  0  0  0  0  0  0  0  0  0  0  0
   32.9060   12.5920    8.1450 C   0  0  0  0  0  0  0  0  0  0  0  0
  6  5  1  0
  5  2  1  0
  2  1  2  0
  3  2  1  0
  4  3  1  0
M  END

$$$$
