A71EV2A-x0202_A_147_A71EV2A-x0395+A+148+1
     RDKit          3D

 13 14  0  0  0  0  0  0  0  0999 V2000
   18.6690   -2.6990   18.8080 O   0  0  0  0  0  0  0  0  0  0  0  0
   19.0100   -1.3690   19.4070 S   0  0  0  0  0  0  0  0  0  0  0  0
   20.2530   -0.8610   18.7090 O   0  0  0  0  0  0  0  0  0  0  0  0
   17.7000   -0.2730   19.1610 N   0  0  0  0  0  0  0  0  0  0  0  0
   19.4140   -1.5360   21.0970 C   0  0  0  0  0  0  0  0  0  0  0  0
   19.8110   -0.5350   21.8960 N   0  0  0  0  0  0  0  0  0  0  0  0
   20.0240   -1.0640   23.1070 C   0  0  0  0  0  0  0  0  0  0  0  0
   19.7600   -2.3800   23.0540 N   0  0  0  0  0  0  0  0  0  0  0  0
   19.3770   -2.7050   21.8090 C   0  0  0  0  0  0  0  0  0  0  0  0
   20.0020    0.7800   21.6680 N   0  0  0  0  0  0  0  0  0  0  0  0
   20.4100    1.6320   22.6220 C   0  0  0  0  0  0  0  0  0  0  0  0
   20.6420    1.1340   23.8860 C   0  0  0  0  0  0  0  0  0  0  0  0
   20.4480   -0.2080   24.1210 C   0  0  0  0  0  0  0  0  0  0  0  0
  4  2  1  0
  3  2  2  0
  2  1  2  0
  5  2  1  0
  5  9  2  0
  9  8  1  0
  8  7  2  0
  7 13  1  0
 13 12  2  0
 12 11  1  0
 11 10  2  0
 10  6  1  0
  6  5  1  0
  7  6  1  0
M  END
