A71EV2A-x0278_A_201_A71EV2A-x0528+A+147+1
     RDKit          3D

 15 16  0  0  0  0  0  0  0  0999 V2000
   13.7370   24.0720   24.0590 O   0  0  0  0  0  0  0  0  0  0  0  0
   13.4250   25.2810   23.3650 S   0  0  0  0  0  0  0  0  0  0  0  0
   13.5060   25.3290   21.9390 O   0  0  0  0  0  0  0  0  0  0  0  0
   11.8900   25.6700   23.7630 N   0  0  0  0  0  0  0  0  0  0  0  0
   11.0900   26.5270   22.8640 C   0  0  0  0  0  0  0  0  0  0  0  0
    9.8070   26.6320   23.6710 C   0  0  0  0  0  0  0  0  0  0  0  0
   11.0390   24.7120   24.4960 C   0  0  0  0  0  0  0  0  0  0  0  0
    9.6150   25.2270   24.2570 C   0  0  1  0  0  0  0  0  0  0  0  0
    8.8380   25.1850   25.5000 N   0  0  0  0  0  0  0  0  0  0  0  0
   14.4450   26.5550   24.0290 C   0  0  0  0  0  0  0  0  0  0  0  0
   14.7930   26.5210   25.3710 C   0  0  0  0  0  0  0  0  0  0  0  0
   15.5060   27.5800   25.9120 C   0  0  0  0  0  0  0  0  0  0  0  0
   15.8650   28.6520   25.1270 C   0  0  0  0  0  0  0  0  0  0  0  0
   15.5210   28.6750   23.7930 C   0  0  0  0  0  0  0  0  0  0  0  0
   14.8240   27.6190   23.2260 C   0  0  0  0  0  0  0  0  0  0  0  0
  8  9  1  1
  8  6  1  0
  6  5  1  0
  5  4  1  0
  7  4  1  0
  8  7  1  0
  4  2  1  0
  3  2  2  0
  2  1  2  0
 10  2  1  0
 10 15  2  0
 15 14  1  0
 14 13  2  0
 13 12  1  0
 12 11  2  0
 11 10  1  0
M  END
