A71EV2A-x0207_A_151_A71EV2A-x0501+A+152+1
     RDKit          3D

 15 16  0  0  0  0  0  0  0  0999 V2000
   34.7890    9.5400    4.7730 O   0  0  0  0  0  0  0  0  0  0  0  0
   34.1240   10.4560    5.2560 C   0  0  0  0  0  0  0  0  0  0  0  0
   33.0990   10.1750    6.2640 C   0  0  0  0  0  0  0  0  0  0  0  0
   32.7950    9.0380    6.9340 C   0  0  0  0  0  0  0  0  0  0  0  0
   32.3050   11.1880    6.6870 O   0  0  0  0  0  0  0  0  0  0  0  0
   31.4470   10.6800    7.7000 N   0  0  0  0  0  0  0  0  0  0  0  0
   31.7600    9.4030    7.8120 C   0  0  0  0  0  0  0  0  0  0  0  0
   31.0330    8.5510    8.8040 C   0  0  0  0  0  0  0  0  0  0  0  0
   34.2670   11.7360    4.9060 N   0  0  0  0  0  0  0  0  0  0  0  0
   34.6510   12.1300    3.5540 C   0  0  0  0  0  0  0  0  0  0  0  0
   36.1100   12.5490    3.4550 C   0  0  2  0  0  0  0  0  0  0  0  0
   36.7740   12.7910    4.8000 C   0  0  0  0  0  0  0  0  0  0  0  0
   37.9220   13.5820    4.5010 O   0  0  0  0  0  0  0  0  0  0  0  0
   37.5320   14.4900    3.4670 C   0  0  0  0  0  0  0  0  0  0  0  0
   36.3020   13.9140    2.7800 C   0  0  0  0  0  0  0  0  0  0  0  0
  8  7  1  0
  7  4  1  0
  4  3  2  0
  5  3  1  0
  6  5  1  0
  7  6  2  0
  3  2  1  0
  2  1  2  0
  9  2  1  0
 10  9  1  0
 11 10  1  1
 11 15  1  0
 15 14  1  0
 14 13  1  0
 13 12  1  0
 12 11  1  0
M  END

$$$$
