A71EV2A-x0853_A_147_A71EV2A-x0501+A+152+1
     RDKit          3D

 15 17  0  0  0  0  0  0  0  0999 V2000
   41.0580   11.7710   10.0070 O   0  0  0  0  0  0  0  0  0  0  0  0
   40.3450   12.6350   10.5030 C   0  0  0  0  0  0  0  0  0  0  0  0
   39.5230   13.3960    9.7730 N   0  0  0  0  0  0  0  0  0  0  0  0
   39.8290   14.7880    9.4550 C   0  0  0  0  0  0  0  0  0  0  0  0
   40.3910   15.0980    8.1170 C   0  0  0  0  0  0  0  0  0  0  0  0
   41.2480   15.2020    9.3280 C   0  0  0  0  0  0  0  0  0  0  0  0
   40.3730   12.9060   11.9700 C   0  0  0  0  0  0  0  0  0  0  0  0
   39.6780   12.0730   12.8430 C   0  0  0  0  0  0  0  0  0  0  0  0
   39.7280   12.3520   14.1860 C   0  0  0  0  0  0  0  0  0  0  0  0
   39.2090   11.6280   15.2340 O   0  0  0  0  0  0  0  0  0  0  0  0
   39.8260   12.1910   16.3930 C   0  0  0  0  0  0  0  0  0  0  0  0
   40.3010   13.4860   16.0340 O   0  0  0  0  0  0  0  0  0  0  0  0
   40.4230   13.4330   14.6670 C   0  0  0  0  0  0  0  0  0  0  0  0
   41.1230   14.2740   13.8250 C   0  0  0  0  0  0  0  0  0  0  0  0
   41.0940   13.9980   12.4690 C   0  0  0  0  0  0  0  0  0  0  0  0
  2  1  2  0
  3  2  1  0
  4  3  1  0
  4  6  1  0
  6  5  1  0
  5  4  1  0
  7  2  1  0
  7 15  2  0
 15 14  1  0
 14 13  2  0
 13 12  1  0
 12 11  1  0
 11 10  1  0
 10  9  1  0
 13  9  1  0
  9  8  2  0
  8  7  1  0
M  END

$$$$
