A71EV2A-x0278_A_147_A71EV2A-x0541+A+147+1
     RDKit          3D

 15 16  0  0  0  0  0  0  0  0999 V2000
    6.9760   14.1510    5.9450 O   0  0  0  0  0  0  0  0  0  0  0  0
    6.8840   13.1590    4.9170 S   0  0  0  0  0  0  0  0  0  0  0  0
    7.1570   11.7990    5.2470 O   0  0  0  0  0  0  0  0  0  0  0  0
    5.3570   13.2140    4.3500 N   0  0  0  0  0  0  0  0  0  0  0  0
    4.7120   14.5250    4.1040 C   0  0  0  0  0  0  0  0  0  0  0  0
    3.9660   14.3460    2.7860 C   0  0  0  0  0  0  0  0  0  0  0  0
    4.9240   12.2200    3.3450 C   0  0  0  0  0  0  0  0  0  0  0  0
    3.6620   12.8500    2.7440 C   0  0  1  0  0  0  0  0  0  0  0  0
    2.4750   12.3800    3.4730 N   0  0  0  0  0  0  0  0  0  0  0  0
    7.9320   13.6330    3.5800 C   0  0  0  0  0  0  0  0  0  0  0  0
    8.3220   12.6850    2.6490 C   0  0  0  0  0  0  0  0  0  0  0  0
    9.0800   13.0830    1.5610 C   0  0  0  0  0  0  0  0  0  0  0  0
    9.4500   14.3960    1.4150 C   0  0  0  0  0  0  0  0  0  0  0  0
    9.0690   15.3270    2.3420 C   0  0  0  0  0  0  0  0  0  0  0  0
    8.3120   14.9580    3.4420 C   0  0  0  0  0  0  0  0  0  0  0  0
  8  9  1  1
  8  6  1  0
  6  5  1  0
  5  4  1  0
  7  4  1  0
  8  7  1  0
  4  2  1  0
  3  2  2  0
  2  1  2  0
 10  2  1  0
 10 15  2  0
 15 14  1  0
 14 13  2  0
 13 12  1  0
 12 11  2  0
 11 10  1  0
M  END

$$$$
